Circuit: * F:\GitHub\TTAmp\Spice\Draft1.asc

Direct Newton iteration for .op point succeeded.

Date: Thu Apr 19 00:21:46 2018
Total elapsed time: 0.149 seconds.

tnom = 27
temp = 27
method = modified trap
totiter = 2101
traniter = 2088
tranpoints = 1045
accept = 1045
rejected = 0
matrix size = 37
fillins = 3
solver = Normal
Matrix Compiler1: 2.27 KB object code size  0.4/0.2/[0.1]
Matrix Compiler2: 3.13 KB object code size  0.2/0.3/[0.2]

