Circuit: * F:\GitHub\TTAmp\Spice\Input_Protection.asc

Instance "m:m1:2": Length shorter than recommended for a level 3 MOSFET.
Instance "m:m1:1": Length shorter than recommended for a level 3 MOSFET.
.OP point found by inspection.

Date: Mon Apr 16 01:23:55 2018
Total elapsed time: 5.999 seconds.

tnom = 27
temp = 27
method = modified trap
totiter = 1008145
traniter = 1008145
tranpoints = 503816
accept = 503576
rejected = 240
matrix size = 50
fillins = 50
solver = Normal
Matrix Compiler1: 5.59 KB object code size  0.8/0.5/[0.2]
Matrix Compiler2: 4.67 KB object code size  0.3/0.4/[0.1]

